10
 energy: -13.533583614814 gnorm: 0.000475384983 xtb: 6.7.1 (edcfbbe)
C           -3.49336807112224       -0.07700049086552       -0.00796975505127
C           -2.22506160091303        0.73654859523542        0.00000199810497
H           -3.54605720023770       -0.66908514453598        0.90394387751778
H           -4.36185852424342        0.57343257943498       -0.06809585792793
H           -3.48632282103816       -0.76079426070422       -0.85434779197366
O           -2.22145578130608        1.94049441121126       -0.00275301584755
C           -0.95097937284193       -0.07589398132574        0.00903009228904
H           -0.39037307002525        0.14095601350268       -0.89873545271706
H           -0.33323998907384        0.23486548552651        0.84923817027450
H           -1.14637810817449       -1.14160039004136        0.06944410243358
