8
 energy: -14.449101473139 gnorm: 0.000398635750 xtb: 6.7.1 (edcfbbe)
C        -4.24117676234351    -0.63759595890525    -0.00156682082796
C        -3.03368972892045     0.27481671154137    -0.00181115854708
H        -4.86438542163596    -0.39115141594022    -0.85851471060310
H        -3.97770956520959    -1.69218877886380    -0.03508278310638
H        -4.82633327511098    -0.43826717589724     0.89383665325766
O        -3.10930075733529     1.46783465283370    -0.00260079329454
O        -1.83366981322420    -0.33394866420665     0.00194532005048
H        -1.89670202784439    -1.29752936627595     0.00368821103517
