10
 energy: -13.533583613613 gnorm: 0.000476150375 xtb: 6.7.1 (edcfbbe)
C        -3.49336784887644    -0.07699981984184    -0.00797291354138
C        -2.22506172269483     0.73654937349275     0.00000313706867
H        -3.54605794387370    -0.66908095666939     0.90394260169309
H        -4.36185776506860     0.57343449360931    -0.06810207946911
H        -3.48632317092980    -0.76079656832860    -0.85434861478324
O        -2.22145528343796     1.94049503348805    -0.00275659309521
C        -0.95097954757047    -0.07589435223822     0.00903279865052
H        -0.39036986611411     0.14095121700500    -0.89873182522360
H        -0.33324024302473     0.23486437133299     0.84924110717708
H        -1.14638114738570    -1.14159997441227     0.06944874862523
