8
 energy: -14.449101473134 gnorm: 0.000398134275 xtb: 6.7.1 (edcfbbe)
C           -4.24117674342847       -0.63759858135387       -0.00156724446856
C           -3.03369218697413        0.27481806686900       -0.00181031705611
H           -4.86438467451234       -0.39115571474426       -0.85851616506502
H           -3.97770676880315       -1.69219077019548       -0.03508290391426
H           -4.82633471301082       -0.43827100345748        0.89383537598568
O           -3.10930572832445        1.46783536875224       -0.00259791261295
O           -1.83367084456316       -0.33394311414427        0.00194491925642
H           -1.89669569200783       -1.29752424744001        0.00368816583830
