12
 energy: -15.879640308337 gnorm: 0.000635630649 xtb: 6.7.1 (edcfbbe)
C           -4.01273292728953        1.14050407298232       -0.00001556245138
C           -4.03739740671196       -0.24417792019277       -0.00002287054949
C           -1.63954844968321       -0.28658305139568       -0.00004503264478
H           -4.93871713428634        1.69700544359705       -0.00000423009248
C           -2.80151468982123        1.81098375957490       -0.00002283083790
C           -2.85074991941310       -0.95742501473918       -0.00003758487100
H           -2.86978366039000       -2.03782725627026       -0.00004245451022
H           -0.71397183943923       -0.84384223223671       -0.00005612782993
C           -1.61507671665803        1.09756376480184       -0.00003770312622
H           -2.78203710171011        2.89150882578393       -0.00001773030487
H           -4.98214611035296       -0.76829046944687       -0.00001656020348
H           -0.67021532614436        1.62155751552678       -0.00004361054953
