12
 energy: -15.879640308327 gnorm: 0.000635634472 xtb: 6.7.1 (edcfbbe)
C        -4.01273292091419     1.14050407147883    -0.00001556240757
C        -4.03739740810023    -0.24417792535863    -0.00002287053381
C        -1.63954845312176    -0.28658304728825    -0.00004503269081
H        -4.93871712166846     1.69700545022143    -0.00000423002329
C        -2.80151469110244     1.81098375813408    -0.00002283083021
C        -2.85074992804318    -0.95742501452009    -0.00003758487936
H        -2.86978362731229    -2.03782725975725    -0.00004245454124
H        -0.71397185637364    -0.84384225333304    -0.00005612789694
C        -1.61507671077415     1.09756376312604    -0.00003770316153
H        -2.78203711657170     2.89150882793688    -0.00001773026773
H        -4.98214610979508    -0.76829047573607    -0.00001656016133
H        -0.67021533812281     1.62155754308162    -0.00004361057755
