53
 energy: -55.175293237465 gnorm: 0.000481603690 xtb: 6.7.1 (edcfbbe)
N           -2.93802496504920        0.47497410359742        0.00268560016649
C           -1.71370758240743        0.94312129865600        0.72753749657507
C           -3.57405682307923       -0.59584686536980        0.83893942798670
C           -3.90331402209250        1.61126686214184       -0.10320818558356
H           -3.46580355245007        2.35527918904596       -0.76724871276070
C           -5.30319280663009        1.26677685379040       -0.61175667902733
H           -3.99138466595606        2.05933071590973        0.88911085517962
C           -2.72669998262580       -1.82663702795713        1.15496619795642
H           -3.88853390485858       -0.13419997947696        1.77772745885010
H           -4.46859083218525       -0.93013360459034        0.31239243618980
H           -1.05265172248106        0.08287676212128        0.83757134724907
C           -0.90266980187211        2.07734724628477        0.10908968236233
H           -2.03345114393647        1.25117496356017        1.72633725328644
C           -2.59019978443888       -0.10106773404223       -1.33902583197948
H           -1.61633010169293       -0.58340367982062       -1.23892488580897
H           -3.32308533475681       -0.87830778041550       -1.56414112025438
C           -2.53831896633513        0.84343700143627       -2.53991633756144
H           -1.88814738552476        1.69700980462563       -2.35771454577422
C           -2.00412154482388        0.08136884979988       -3.75803748599762
H           -3.53110648586582        1.21892033456152       -2.78560576347055
H           -0.99535524114852       -0.28068992681218       -3.55110186502751
H           -2.63606131326819       -0.78705815677083       -3.95220023096219
C           -1.97631060599276        0.97146101468039       -4.99373069810741
H           -1.33125016512383        1.83233338254846       -4.83554405263865
H           -1.59866339216787        0.41539772522990       -5.84670898919311
H           -2.97457905004335        1.32819683150800       -5.23495938044287
H           -1.91620262036775       -1.58436490851521        1.84257745020536
C           -3.60278423419204       -2.89649619493877        1.81683218840955
H           -2.29483798602256       -2.24990567813502        0.24780097113820
H           -4.05899918152933       -2.48521512968630        2.71883825668724
H           -4.40689232513719       -3.18312463724123        1.13661244661391
C           -2.78682764464884       -4.13017412071603        2.18033717773968
H           -1.99478507936156       -3.87639349054092        2.88029055329043
H           -3.42434240864901       -4.87679926902349        2.64407740390032
H           -2.33645286772132       -4.56960185087407        1.29368319871310
H           -0.44292355223013        1.75781880910864       -0.82570582266463
H           -1.52109262440963        2.95385829548329       -0.08415679812145
C            0.21663839928283        2.48805944260204        1.07298858669160
H            0.84580792527911        1.62354652750219        1.29243336826138
C            1.07327107094027        3.59869290677505        0.47878287921949
H           -0.21880969684122        2.83148056365780        2.01320342720339
H            1.54400114721089        3.27113728269299       -0.44482382097520
H            0.47110427415509        4.47865965395769        0.26632088603883
H            1.85521782114834        3.88222865772552        1.17669151365840
H           -5.25702508825808        0.61462040199156       -1.48429833950814
H           -5.88440390430439        0.76094285763438        0.16004033812327
C           -6.04523203597962        2.55012944711862       -1.00017377759668
H           -5.50146971584322        3.06212675527487       -1.79677099786779
C           -7.46224813823128        2.24860320708160       -1.47043677417627
H           -6.08394876222286        3.22016429420997       -0.13966046838711
H           -7.44998020102060        1.59828639993678       -2.34180245897853
H           -8.03364219610801        1.76129021028678       -0.68450752594474
H           -7.97105849276842        3.16919271388644       -1.73991729985273
