29
 energy: -35.391403583817 gnorm: 0.000889025224 xtb: 6.7.1 (edcfbbe)
C        -3.58212394745986     2.04731027095491    -0.02541851299798
C        -3.65634921228824     0.51842440042817     0.01282167748563
H        -3.62494842552736     2.43192193970847     0.99640514052493
H        -2.24371490289536     2.22289303538838    -1.71511674277495
C        -2.30523248725015     2.55446788307254    -0.67811826436317
C        -4.05148874832547    -0.05468032167159    -1.35832159033614
C        -0.51771957111703    -0.07169498627513    -1.14513119639888
N        -2.38671905290501    -0.07910494715828     0.42100888947541
C        -1.12299759452762     2.03403638949410     0.12516330325649
C        -1.07119049928068     0.50398839906852     0.16976048381376
H        -0.18208885745351     2.39640001533939    -0.29364451648898
H        -1.20162839452292     2.41799495723393     1.14577030418729
H        -2.29972913147754     3.64615489156168    -0.68156805634587
C        -0.15862679698414     0.06118189686415     1.32105916506913
C        -4.70657625143599     0.08744756229181     1.04471930169767
H        -4.45928238677490     2.42019439450354    -0.55655040881566
O        -2.41084620785494    -1.33030335490500     0.69636472531722
H         0.84094640580121     0.46343864358285     1.18198285069880
H        -0.55298823984046     0.41389533328803     2.27146243463894
H        -0.11050965844243    -1.02333245838096     1.35345817326264
H         0.53862295231265     0.16578043177914    -1.24096408171905
H        -0.63634371728985    -1.15245167181540    -1.13616492374354
H        -1.04305031361836     0.32956259133858    -2.00714112900309
H        -4.43776427742528     0.45471695653831     2.03267518953352
H        -5.68162583417377     0.48285582422325     0.77382624593274
H        -4.75528613836818    -0.99679406675506     1.08578642396209
H        -3.39637964936722     0.30810031432403    -2.14542200356243
H        -3.98257384404651    -1.13922367389956    -1.32123411744366
H        -5.07361076809858     0.22527402615553    -1.59968904517430
